MK1
  CCTOOLS-0919241035

 92 96  0  0  1  0  0  0  0  0999 V2000
    0.0110    0.0440    5.5400 N   0  0  0  0  0
    1.2280   -0.4290    4.8710 C   0  0  0  0  0
    1.3870    0.2830    3.5270 C   0  0  0  0  0
    2.6750   -0.1510    2.8780 C   0  0  0  0  0
    2.6540   -0.6930    1.7930 O   0  0  0  0  0
    3.8510    0.0600    3.5020 N   0  0  0  0  0
    5.1030   -0.3620    2.8710 C   0  0  0  0  0
    6.2790   -0.0060    3.7820 C   0  0  0  0  0
    5.2640    0.3520    1.5280 C   0  0  0  0  0
    5.0730   -1.8750    2.6430 C   0  0  0  0  0
    0.2590   -0.0560    2.6520 N   0  0  0  0  0
   -0.9570    0.4180    3.3210 C   0  0  0  0  0
   -1.1160   -0.2940    4.6640 C   0  0  0  0  0
    0.4130    0.7500    1.4340 C   0  0  0  0  0
   -0.5600    0.2500    0.3650 C   0  0  0  0  0
   -1.9010    0.5110    0.7830 O   0  0  0  0  0
   -0.2860    0.9770   -0.9530 C   0  0  0  0  0
   -1.1350    0.3550   -2.0630 C   0  0  0  0  0
   -2.6110    0.6770   -1.8180 C   0  0  0  0  0
   -3.4500    0.0330   -2.8920 C   0  0  0  0  0
   -3.8350   -1.2880   -2.7690 C   0  0  0  0  0
   -4.6050   -1.8780   -3.7530 C   0  0  0  0  0
   -4.9910   -1.1460   -4.8600 C   0  0  0  0  0
   -4.6070    0.1750   -4.9830 C   0  0  0  0  0
   -3.8410    0.7670   -3.9960 C   0  0  0  0  0
   -0.7120    0.9200   -3.3950 C   0  0  0  0  0
   -0.4360    2.0970   -3.4950 O   0  0  0  0  0
   -0.6400    0.1170   -4.4750 N   0  0  0  0  0
   -0.1210    0.6380   -5.7420 C   0  0  0  0  0
   -0.7190   -0.1450   -6.9290 C   0  0  0  0  0
   -1.0780   -1.4700   -6.5340 O   0  0  0  0  0
    0.4510   -0.1670   -7.9350 C   0  0  0  0  0
    1.7020   -0.0500   -7.0900 C   0  0  0  0  0
    3.0230   -0.3270   -7.3990 C   0  0  0  0  0
    4.0120   -0.1430   -6.4530 C   0  0  0  0  0
    3.6830    0.3200   -5.1930 C   0  0  0  0  0
    2.3660    0.5970   -4.8820 C   0  0  0  0  0
    1.3730    0.4140   -5.8290 C   0  0  0  0  0
   -0.1420   -0.7620    6.7580 C   0  0  0  0  0
   -1.3800   -0.3240    7.4980 C   0  0  0  0  0
   -1.3080    0.6700    8.4540 C   0  0  0  0  0
   -2.3880    1.0620    9.1020 N   0  0  0  0  0
   -3.5680    0.5190    8.8750 C   0  0  0  0  0
   -3.7160   -0.4850    7.9370 C   0  0  0  0  0
   -2.6040   -0.9190    7.2320 C   0  0  0  0  0
    1.1550   -1.5040    4.7040 H   0  0  0  0  0
    2.0940   -0.2170    5.4990 H   0  0  0  0  0
    1.4090    1.3610    3.6890 H   0  0  0  0  0
    3.8670    0.4940    4.3700 H   0  0  0  0  0
    7.2110   -0.3210    3.3120 H   0  0  0  0  0
    6.3000    1.0710    3.9440 H   0  0  0  0  0
    6.1650   -0.5150    4.7390 H   0  0  0  0  0
    5.2850    1.4300    1.6900 H   0  0  0  0  0
    6.1950    0.0370    1.0580 H   0  0  0  0  0
    4.4250    0.0980    0.8780 H   0  0  0  0  0
    4.9590   -2.3840    3.6000 H   0  0  0  0  0
    4.2350   -2.1280    1.9940 H   0  0  0  0  0
    6.0050   -2.1900    2.1730 H   0  0  0  0  0
   -1.8230    0.2070    2.6930 H   0  0  0  0  0
   -0.8850    1.4930    3.4880 H   0  0  0  0  0
   -1.1390   -1.3720    4.5020 H   0  0  0  0  0
   -2.0480    0.0200    5.1340 H   0  0  0  0  0
    0.1990    1.7940    1.6600 H   0  0  0  0  0
    1.4350    0.6600    1.0650 H   0  0  0  0  0
   -0.4250   -0.8210    0.2230 H   0  0  0  0  0
   -1.9770    1.4680    0.8960 H   0  0  0  0  0
   -0.5420    2.0310   -0.8470 H   0  0  0  0  0
    0.7690    0.8830   -1.2070 H   0  0  0  0  0
   -0.9950   -0.7250   -2.0660 H   0  0  0  0  0
   -2.9090    0.2920   -0.8430 H   0  0  0  0  0
   -2.7560    1.7570   -1.8420 H   0  0  0  0  0
   -3.5330   -1.8600   -1.9040 H   0  0  0  0  0
   -4.9040   -2.9110   -3.6570 H   0  0  0  0  0
   -5.5920   -1.6080   -5.6300 H   0  0  0  0  0
   -4.9090    0.7470   -5.8480 H   0  0  0  0  0
   -3.5410    1.8000   -4.0920 H   0  0  0  0  0
   -0.9320   -0.8050   -4.4140 H   0  0  0  0  0
   -0.3500    1.7000   -5.8360 H   0  0  0  0  0
   -1.5780    0.3790   -7.3470 H   0  0  0  0  0
   -1.3770   -1.9280   -7.3310 H   0  0  0  0  0
    0.4560   -1.1050   -8.4900 H   0  0  0  0  0
    0.3770    0.6770   -8.6200 H   0  0  0  0  0
    3.2810   -0.6890   -8.3840 H   0  0  0  0  0
    5.0410   -0.3600   -6.6970 H   0  0  0  0  0
    4.4540    0.4640   -4.4510 H   0  0  0  0  0
    2.1090    0.9590   -3.8980 H   0  0  0  0  0
   -0.2330   -1.8140    6.4880 H   0  0  0  0  0
    0.7300   -0.6250    7.3970 H   0  0  0  0  0
   -0.3590    1.1380    8.6670 H   0  0  0  0  0
   -4.4300    0.8640    9.4280 H   0  0  0  0  0
   -4.6850   -0.9250    7.7550 H   0  0  0  0  0
   -2.6890   -1.7020    6.4930 H   0  0  0  0  0
  1  2  1  0  0  0
  1 13  1  0  0  0
  1 39  1  0  0  0
  2  3  1  0  0  0
  2 46  1  0  0  0
  2 47  1  0  0  0
  3  4  1  0  0  0
  3 11  1  0  0  0
  3 48  1  0  0  0
  4  5  2  0  0  0
  4  6  1  0  0  0
  6  7  1  0  0  0
  6 49  1  0  0  0
  7  8  1  0  0  0
  7  9  1  0  0  0
  7 10  1  0  0  0
  8 50  1  0  0  0
  8 51  1  0  0  0
  8 52  1  0  0  0
  9 53  1  0  0  0
  9 54  1  0  0  0
  9 55  1  0  0  0
 10 56  1  0  0  0
 10 57  1  0  0  0
 10 58  1  0  0  0
 11 12  1  0  0  0
 11 14  1  0  0  0
 12 13  1  0  0  0
 12 59  1  0  0  0
 12 60  1  0  0  0
 13 61  1  0  0  0
 13 62  1  0  0  0
 14 15  1  0  0  0
 14 63  1  0  0  0
 14 64  1  0  0  0
 15 16  1  0  0  0
 15 17  1  0  0  0
 15 65  1  0  0  0
 16 66  1  0  0  0
 17 18  1  0  0  0
 17 67  1  0  0  0
 17 68  1  0  0  0
 18 19  1  0  0  0
 18 26  1  0  0  0
 18 69  1  0  0  0
 19 20  1  0  0  0
 19 70  1  0  0  0
 19 71  1  0  0  0
 20 21  2  0  0  0
 20 25  1  0  0  0
 21 22  1  0  0  0
 21 72  1  0  0  0
 22 23  2  0  0  0
 22 73  1  0  0  0
 23 24  1  0  0  0
 23 74  1  0  0  0
 24 25  2  0  0  0
 24 75  1  0  0  0
 25 76  1  0  0  0
 26 27  2  0  0  0
 26 28  1  0  0  0
 28 29  1  0  0  0
 28 77  1  0  0  0
 29 30  1  0  0  0
 29 38  1  0  0  0
 29 78  1  0  0  0
 30 31  1  0  0  0
 30 32  1  0  0  0
 30 79  1  0  0  0
 31 80  1  0  0  0
 32 33  1  0  0  0
 32 81  1  0  0  0
 32 82  1  0  0  0
 33 34  2  0  0  0
 33 38  1  0  0  0
 34 35  1  0  0  0
 34 83  1  0  0  0
 35 36  2  0  0  0
 35 84  1  0  0  0
 36 37  1  0  0  0
 36 85  1  0  0  0
 37 38  2  0  0  0
 37 86  1  0  0  0
 39 40  1  0  0  0
 39 87  1  0  0  0
 39 88  1  0  0  0
 40 41  1  0  0  0
 40 45  2  0  0  0
 41 42  2  0  0  0
 41 89  1  0  0  0
 42 43  1  0  0  0
 43 44  2  0  0  0
 43 90  1  0  0  0
 44 45  1  0  0  0
 44 91  1  0  0  0
 45 92  1  0  0  0
M  END
$$$$
